reduced_networks/ieee37/62pct/dss/Branches.dss
! Radial Kron-equivalent series elements
new Reactor.kr_2_15 phases=1 bus1=799.2 bus2=799r.2 rmatrix=[0.0009999999999999998] xmatrix=[1.77635683940025e-21]
new Reactor.kr_3_8 phases=3 bus1=709.1.2.3 bus2=730.1.2.3 rmatrix=[0.04899999999999999 | 0.0184507576 0.04932575759999999 | 0.01736742420000001 0.01845075760000001 0.049] xmatrix=[0.0254280304 | 0.007996212199999998 0.0239621212 | 0.005761363600000003 0.0079962122 0.02542803040000001]
new Reactor.kr_3_12 phases=3 bus1=709.1.2.3 bus2=708.1.2.3 rmatrix=[0.07839999999999996 | 0.02952121215999991 0.07892121215999988 | 0.02778787871999992 0.02952121215999991 0.07839999999999991] xmatrix=[0.04068484863999999 | 0.01279393952000007 0.03833939392000005 | 0.009218181759999987 0.01279393951999997 0.04068484864000001]
new Reactor.kr_5_6 phases=3 bus1=701.1.2.3 bus2=702.1.2.3 rmatrix=[0.08638181855999999 | 0.02961818207999998 0.08160000000000003 | 0.02243636351999999 0.02961818207999999 0.08638181856000002] xmatrix=[0.05405454528000003 | -0.005927272320000019 0.04869090912000002 | -0.01103636352000001 -0.005927272320000001 0.05405454527999999]
new Reactor.kr_5_15 phases=3 bus1=701.1.2.3 bus2=799r.1.2.3 rmatrix=[0.10252083395 | 0.02358049220000002 0.0927102266 | 0.01180776560000002 0.0235804922 0.10252083395] xmatrix=[0.0691297344 | -0.01289393945 0.06657196879999998 | -0.01461079495 -0.01289393945000001 0.06912973439999999]
new Reactor.kr_6_7 phases=3 bus1=702.1.2.3 bus2=703.1.2.3 rmatrix=[0.1187750005200001 | 0.04072500036000015 0.1122 | 0.0308499998400001 0.04072500036000008 0.1187750005200001] xmatrix=[0.07432499976000005 | -0.008149999439999937 0.0669500000400001 | -0.01517499984000016 -0.008149999440000095 0.07432499976000007]
new Reactor.kr_6_9 phases=3 bus1=702.1.2.3 bus2=704.1.2.3 rmatrix=[0.2155999128140411 | 0.081183276738368 0.217033247219993 | 0.07641661560906797 0.08118327673836777 0.215599912814041] xmatrix=[0.1118834008710961 | 0.03518338311197465 0.1054334036743178 | 0.02535004903482176 0.03518338311197492 0.1118834008710961]
new Reactor.kr_7_8 phases=3 bus1=703.1.2.3 bus2=730.1.2.3 rmatrix=[0.147 | 0.05535227279999998 0.1479772728 | 0.05210227259999999 0.0553522728 0.1470000000000001] xmatrix=[0.07628409120000006 | 0.02398863660000001 0.0718863636 | 0.01728409080000002 0.0239886366 0.07628409120000007]
new Reactor.kr_9_10 phases=3 bus1=704.1.2.3 bus2=720.1.2.3 rmatrix=[0.1960000000000002 | 0.07380303039999997 0.1973030304000001 | 0.06946969680000008 0.07380303039999993 0.196] xmatrix=[0.1017121216000002 | 0.03198484880000006 0.09584848480000006 | 0.02304545440000002 0.03198484880000028 0.1017121216000002]
new Reactor.kr_10_11 phases=3 bus1=720.1.2.3 bus2=707.1.2.3 rmatrix=[0.3650727274399997 | 0.09067575752000002 0.3670939398400006 | 0.08583181859999936 0.09067575751999959 0.3650727274399997] xmatrix=[0.1351772725600004 | 0.04770757611999996 0.1289045451199999 | 0.03699166636000004 0.04770757612000052 0.1351772725600006]
new Reactor.kr_12_13 phases=3 bus1=708.1.2.3 bus2=734.1.2.3 rmatrix=[0.2155999165399371 | 0.08118327916151448 0.2170332509046083 | 0.07641661778303949 0.08118327916151431 0.2155999165399367] xmatrix=[0.1118833980031008 | 0.0351833809994976 0.1054334006660137 | 0.02535004693247919 0.03518338099949739 0.1118833980031005]
new Reactor.kr_13_14 phases=3 bus1=734.1.2.3 bus2=737.1.2.3 rmatrix=[0.1568000000000003 | 0.05904242432000019 0.1578424243200001 | 0.05557575744000028 0.05904242431999993 0.1568000000000001] xmatrix=[0.08136969728000025 | 0.02558787904000007 0.07667878783999989 | 0.01843636352000008 0.02558787903999995 0.08136969728000001]
